<?xml version="1.0" encoding="utf-8"?>
<Project>
  <ProjectOutputs>
    <ProjectOutput>
      <FullPath>C:\Users\kdoku\Documents\openFAST_TMD\OpenFAST_TID\build\bin\Registry.exe</FullPath>
    </ProjectOutput>
  </ProjectOutputs>
  <ContentFiles />
  <SatelliteDlls />
  <NonRecipeFileRefs />
</Project>